<?xml version="1.0" encoding="UTF-8"?>

<!-- generated on Thu Jun  4 15:46:12 2020 by Eclipse SUMO netconvert Version 1.6.0
<configuration xmlns:xsi="http://www.w3.org/2001/XMLSchema-instance" xsi:noNamespaceSchemaLocation="http://sumo.dlr.de/xsd/netconvertConfiguration.xsd">

    <input>
        <osm-files value="raw_map_bbox.osm.xml"/>
    </input>

    <output>
        <output-file value="mht.net.xml"/>
        <output.street-names value="true"/>
        <output.original-names value="true"/>
    </output>

    <projection>
        <proj.utm value="true"/>
    </projection>

    <processing>
        <geometry.remove value="true"/>
        <roundabouts.guess value="true"/>
    </processing>

    <tls_building>
        <tls.discard-simple value="true"/>
        <tls.join value="true"/>
        <tls.guess-signals value="true"/>
    </tls_building>

    <ramp_guessing>
        <ramps.guess value="true"/>
    </ramp_guessing>

    <junctions>
        <junctions.join value="true"/>
        <junctions.corner-detail value="5"/>
    </junctions>

    <report>
        <verbose value="true"/>
        <aggregate-warnings value="5"/>
    </report>

</configuration>
-->

<net version="1.6" junctionCornerDetail="5" limitTurnSpeed="5.50" xmlns:xsi="http://www.w3.org/2001/XMLSchema-instance" xsi:noNamespaceSchemaLocation="http://sumo.dlr.de/xsd/net_file.xsd">

    <location netOffset="-583620.04,-4509691.89" convBoundary="0.00,0.00,4766.96,3115.57" origBoundary="-74.009624,40.726002,-73.953139,40.761626" projParameter="+proj=utm +zone=18 +ellps=WGS84 +datum=WGS84 +units=m +no_defs"/>

    <type id="highway.bridleway" priority="1" numLanes="1" speed="2.78" allow="pedestrian" oneway="1" width="2.00"/>
    <type id="highway.bus_guideway" priority="1" numLanes="1" speed="27.78" allow="bus" oneway="1"/>
    <type id="highway.cycleway" priority="1" numLanes="1" speed="8.33" allow="bicycle" oneway="0" width="1.00"/>
    <type id="highway.footway" priority="1" numLanes="1" speed="2.78" allow="pedestrian" oneway="1" width="2.00"/>
    <type id="highway.ford" priority="1" numLanes="1" speed="2.78" allow="army" oneway="0"/>
    <type id="highway.living_street" priority="2" numLanes="1" speed="2.78" disallow="tram rail_urban rail rail_electric rail_fast ship" oneway="0"/>
    <type id="highway.motorway" priority="14" numLanes="2" speed="39.44" allow="private emergency authority army vip passenger hov taxi bus coach delivery truck trailer motorcycle evehicle custom1 custom2" oneway="1"/>
    <type id="highway.motorway_link" priority="9" numLanes="1" speed="22.22" allow="private emergency authority army vip passenger hov taxi bus coach delivery truck trailer motorcycle evehicle custom1 custom2" oneway="1"/>
    <type id="highway.path" priority="1" numLanes="1" speed="2.78" allow="pedestrian bicycle" oneway="1" width="2.00"/>
    <type id="highway.pedestrian" priority="1" numLanes="1" speed="2.78" allow="pedestrian" oneway="1" width="2.00"/>
    <type id="highway.primary" priority="12" numLanes="2" speed="27.78" disallow="tram rail_urban rail rail_electric rail_fast ship" oneway="0"/>
    <type id="highway.primary_link" priority="7" numLanes="1" speed="22.22" disallow="tram rail_urban rail rail_electric rail_fast ship" oneway="0"/>
    <type id="highway.raceway" priority="15" numLanes="2" speed="83.33" allow="vip" oneway="0"/>
    <type id="highway.residential" priority="3" numLanes="1" speed="13.89" disallow="tram rail_urban rail rail_electric rail_fast ship" oneway="0"/>
    <type id="highway.secondary" priority="11" numLanes="1" speed="27.78" disallow="tram rail_urban rail rail_electric rail_fast ship" oneway="0"/>
    <type id="highway.secondary_link" priority="6" numLanes="1" speed="22.22" disallow="tram rail_urban rail rail_electric rail_fast ship" oneway="0"/>
    <type id="highway.service" priority="1" numLanes="1" speed="5.56" allow="pedestrian delivery bicycle" oneway="0"/>
    <type id="highway.stairs" priority="1" numLanes="1" speed="1.39" allow="pedestrian" oneway="1" width="2.00"/>
    <type id="highway.step" priority="1" numLanes="1" speed="1.39" allow="pedestrian" oneway="1" width="2.00"/>
    <type id="highway.steps" priority="1" numLanes="1" speed="1.39" allow="pedestrian" oneway="1" width="2.00"/>
    <type id="highway.tertiary" priority="10" numLanes="1" speed="22.22" disallow="tram rail_urban rail rail_electric rail_fast ship" oneway="0"/>
    <type id="highway.tertiary_link" priority="5" numLanes="1" speed="22.22" disallow="tram rail_urban rail rail_electric rail_fast ship" oneway="0"/>
    <type id="highway.track" priority="1" numLanes="1" speed="5.56" disallow="tram rail_urban rail rail_electric rail_fast ship" oneway="0"/>
    <type id="highway.trunk" priority="13" numLanes="2" speed="27.78" disallow="pedestrian bicycle tram rail_urban rail rail_electric rail_fast ship" oneway="0"/>
    <type id="highway.trunk_link" priority="8" numLanes="1" speed="22.22" disallow="pedestrian bicycle tram rail_urban rail rail_electric rail_fast ship" oneway="0"/>
    <type id="highway.unclassified" priority="4" numLanes="1" speed="13.89" disallow="tram rail_urban rail rail_electric rail_fast ship" oneway="0"/>
    <type id="highway.unsurfaced" priority="1" numLanes="1" speed="8.33" disallow="tram rail_urban rail rail_electric rail_fast ship" oneway="0"/>
    <type id="railway.highspeed" priority="21" numLanes="1" speed="69.44" allow="rail_fast" oneway="1"/>
    <type id="railway.light_rail" priority="19" numLanes="1" speed="27.78" allow="rail_urban" oneway="1"/>
    <type id="railway.preserved" priority="16" numLanes="1" speed="27.78" allow="rail" oneway="1"/>
    <type id="railway.rail" priority="20" numLanes="1" speed="44.44" allow="rail" oneway="1"/>
    <type id="railway.subway" priority="18" numLanes="1" speed="27.78" allow="rail_urban" oneway="1"/>
    <type id="railway.tram" priority="17" numLanes="1" speed="13.89" allow="tram" oneway="1"/>

    <edge id=":2302133933_0" function="internal">
        <lane id=":2302133933_0_0" index="0" disallow="tram rail_urban rail rail_electric rail_fast ship" speed="6.51" length="9.01" shape="2179.98,792.18 2178.52,790.20 2176.77,789.16 2174.73,789.06 2172.41,789.90"/>
    </edge>
    <edge id=":2302133933_1" function="internal">
        <lane id=":2302133933_1_0" index="0" disallow="tram rail_urban rail rail_electric rail_fast ship" speed="11.18" length="11.16" shape="2179.98,792.18 2174.69,782.35"/>
    </edge>
    <edge id=":2307164619_0" function="internal">
        <lane id=":2307164619_0_0" index="0" disallow="tram rail_urban rail rail_electric rail_fast ship" speed="11.18" length="5.00" shape="1576.73,1201.28 1581.13,1198.91"/>
    </edge>
    <edge id=":2307164622_0" function="internal">
        <lane id=":2307164622_0_0" index="0" disallow="tram rail_urban rail rail_electric rail_fast ship" speed="11.18" length="5.00" shape="1614.37,1269.33 1609.97,1271.72"/>
    </edge>
    <edge id=":2307164623_0" function="internal">
        <lane id=":2307164623_0_0" index="0" disallow="tram rail_urban rail rail_electric rail_fast ship" speed="11.18" length="5.01" shape="1627.72,1262.09 1623.32,1264.49"/>
    </edge>
    <edge id=":2307164625_0" function="internal">
        <lane id=":2307164625_0_0" index="0" disallow="tram rail_urban rail rail_electric rail_fast ship" speed="11.18" length="5.00" shape="1586.02,1196.28 1590.42,1193.91"/>
    </edge>
    <edge id=":2308965779_0" function="internal">
        <lane id=":2308965779_0_0" index="0" disallow="tram rail_urban rail rail_electric rail_fast ship" speed="11.18" length="5.00" shape="1200.91,1849.62 1196.51,1851.98"/>
    </edge>
    <edge id=":246580444_0" function="internal">
        <lane id=":246580444_0_0" index="0" disallow="tram rail_urban rail rail_electric rail_fast ship" speed="11.18" length="23.44" shape="275.55,1787.63 263.50,1767.53"/>
    </edge>
    <edge id=":246580444_1" function="internal">
        <lane id=":246580444_1_0" index="0" disallow="tram rail_urban rail rail_electric rail_fast ship" speed="11.18" length="23.44" shape="275.55,1787.63 273.43,1783.03 270.89,1776.89 268.43,1770.70 266.56,1765.99"/>
    </edge>
    <edge id=":246580595_0" function="internal">
        <lane id=":246580595_0_0" index="0" disallow="tram rail_urban rail rail_electric rail_fast ship" speed="11.18" length="0.30" shape="260.74,1751.73 260.63,1751.45"/>
    </edge>
    <edge id=":2631319579_0" function="internal">
        <lane id=":2631319579_0_0" index="0" disallow="tram rail_urban rail rail_electric rail_fast ship" speed="11.18" length="5.06" shape="878.67,1487.65 874.20,1490.03"/>
    </edge>
    <edge id=":2671667955_0" function="internal">
        <lane id=":2671667955_0_0" index="0" disallow="tram rail_urban rail rail_electric rail_fast ship" speed="11.18" length="5.00" shape="304.68,1342.14 300.29,1344.52"/>
    </edge>
    <edge id=":2703228467_0" function="internal">
        <lane id=":2703228467_0_0" index="0" disallow="tram rail_urban rail rail_electric rail_fast ship" speed="11.18" length="0.30" shape="861.55,1852.87 861.29,1853.01"/>
    </edge>
    <edge id=":2709702236_0" function="internal">
        <lane id=":2709702236_0_0" index="0" allow="pedestrian delivery bicycle" speed="3.65" length="4.67" shape="2104.49,1810.18 2104.72,1808.75 2105.28,1808.06 2106.18,1808.09 2107.40,1808.85"/>
    </edge>
    <edge id=":2709702549_0" function="internal">
        <lane id=":2709702549_0_0" index="0" allow="pedestrian delivery bicycle" speed="3.65" length="4.67" shape="2079.33,1756.42 2079.11,1757.85 2078.56,1758.55 2077.66,1758.52 2076.43,1757.77"/>
    </edge>
    <edge id=":274681226_0" function="internal">
        <lane id=":274681226_0_0" index="0" disallow="tram rail_urban rail rail_electric rail_fast ship" speed="11.18" length="6.42" shape="1738.39,897.77 1738.10,895.93 1737.88,894.67 1737.61,893.43 1737.17,891.62"/>
        <lane id=":274681226_0_1" index="1" disallow="tram rail_urban rail rail_electric rail_fast ship" speed="11.18" length="6.42" shape="1741.55,897.29 1741.25,895.36 1741.02,894.05 1740.74,892.75 1740.28,890.85"/>
    </edge>
    <edge id=":2823833538_0" function="internal">
        <lane id=":2823833538_0_0" index="0" disallow="tram rail_urban rail rail_electric rail_fast ship" speed="11.18" length="5.00" shape="405.85,1560.03 401.47,1562.44"/>
    </edge>
    <edge id=":2823833538_1" function="internal">
        <lane id=":2823833538_1_0" index="0" disallow="tram rail_urban rail rail_electric rail_fast ship" speed="3.65" length="2.34" shape="405.85,1560.03 404.42,1559.91 403.68,1559.40"/>
    </edge>
    <edge id=":2823833538_4" function="internal">
        <lane id=":2823833538_4_0" index="0" disallow="tram rail_urban rail rail_electric rail_fast ship" speed="3.65" length="2.34" shape="403.68,1559.40 403.65,1558.51 404.31,1557.23"/>
    </edge>
    <edge id=":2823833538_2" function="internal">
        <lane id=":2823833538_2_0" index="0" disallow="tram rail_urban rail rail_electric rail_fast ship" speed="11.18" length="5.00" shape="399.93,1559.64 404.31,1557.23"/>
    </edge>
    <edge id=":2823833538_3" function="internal">
        <lane id=":2823833538_3_0" index="0" disallow="tram rail_urban rail rail_electric rail_fast ship" speed="3.65" length="2.34" shape="399.93,1559.64 401.36,1559.76 402.10,1560.27"/>
    </edge>
    <edge id=":2823833538_5" function="internal">
        <lane id=":2823833538_5_0" index="0" disallow="tram rail_urban rail rail_electric rail_fast ship" speed="3.65" length="2.34" shape="402.10,1560.27 402.14,1561.16 401.47,1562.44"/>
    </edge>
    <edge id=":2823833578_0" function="internal">
        <lane id=":2823833578_0_0" index="0" disallow="tram rail_urban rail rail_electric rail_fast ship" speed="11.18" length="5.00" shape="585.44,1913.02 589.86,1910.67"/>
    </edge>
    <edge id=":3008856924_0" function="internal">
        <lane id=":3008856924_0_0" index="0" disallow="tram rail_urban rail rail_electric rail_fast ship" speed="11.18" length="4.77" shape="1760.86,1005.87 1758.56,1001.70"/>
        <lane id=":3008856924_0_1" index="1" disallow="tram rail_urban rail rail_electric rail_fast ship" speed="11.18" length="4.77" shape="1763.66,1004.33 1761.36,1000.16"/>
        <lane id=":3008856924_0_2" index="2" disallow="tram rail_urban rail rail_electric rail_fast ship" speed="11.18" length="4.77" shape="1766.46,1002.78 1764.16,998.61"/>
    </edge>
    <edge id=":3008856931_0" function="internal">
        <lane id=":3008856931_0_0" index="0" disallow="tram rail_urban rail rail_electric rail_fast ship" speed="11.18" length="4.84" shape="1758.84,1013.12 1754.61,1015.47"/>
    </edge>
    <edge id=":3009534469_0" function="internal">
        <lane id=":3009534469_0_0" index="0" disallow="tram rail_urban rail rail_electric rail_fast ship" speed="11.18" length="3.25" shape="1732.58,954.31 1731.06,951.45"/>
        <lane id=":3009534469_0_1" index="1" disallow="tram rail_urban rail rail_electric rail_fast ship" speed="11.18" length="3.25" shape="1735.40,952.82 1733.88,949.95"/>
        <lane id=":3009534469_0_2" index="2" disallow="tram rail_urban rail rail_electric rail_fast ship" speed="11.18" length="3.25" shape="1738.23,951.32 1736.71,948.45"/>
    </edge>
    <edge id=":3019042134_0" function="internal">
        <lane id=":3019042134_0_0" index="0" disallow="tram rail_urban rail rail_electric rail_fast ship" speed="11.18" length="6.80" shape="1739.58,937.10 1740.73,930.44"/>
        <lane id=":3019042134_0_1" index="1" disallow="tram rail_urban rail rail_electric rail_fast ship" speed="11.18" length="6.80" shape="1742.72,937.69 1743.89,930.94"/>
    </edge>
    <edge id=":3212786155_0" function="internal">
        <lane id=":3212786155_0_0" index="0" allow="rail rail_electric rail_fast" speed="44.44" length="3.02" shape="1522.44,1750.20 1521.62,1750.55 1521.04,1750.76 1520.45,1750.94 1519.59,1751.19"/>
    </edge>
    <edge id=":3212786155_1" function="internal">
        <lane id=":3212786155_1_0" index="0" allow="rail rail_electric rail_fast" speed="2.89" length="1.72" shape="1519.68,1751.39 1520.26,1751.13 1520.44,1751.00 1520.22,1751.02 1519.59,1751.19"/>
    </edge>
    <edge id=":3236324362_0" function="internal">
        <lane id=":3236324362_0_0" index="0" allow="pedestrian delivery bicycle" speed="6.08" length="7.77" shape="375.30,969.77 374.99,968.38 375.56,966.96 377.01,965.51 379.34,964.02"/>
    </edge>
    <edge id=":3236324362_1" function="internal">
        <lane id=":3236324362_1_0" index="0" allow="pedestrian delivery bicycle" speed="3.65" length="4.67" shape="375.30,969.77 375.42,968.33 375.93,967.60 376.83,967.56 378.10,968.23"/>
    </edge>
    <edge id=":3236324362_2" function="internal">
        <lane id=":3236324362_2_0" index="0" disallow="tram rail_urban rail rail_electric rail_fast ship" speed="11.18" length="9.41" shape="371.08,968.54 379.34,964.02"/>
    </edge>
    <edge id=":3236324362_3" function="internal">
        <lane id=":3236324362_3_0" index="0" allow="pedestrian delivery bicycle" speed="6.08" length="7.77" shape="371.08,968.54 373.59,967.38 375.60,966.94 377.10,967.22 378.10,968.23"/>
    </edge>
    <edge id=":3236324365_0" function="internal">
        <lane id=":3236324365_0_0" index="0" allow="pedestrian delivery bicycle" speed="5.56" length="10.18" shape="382.96,977.07 383.94,979.69 383.85,981.98 382.69,983.97 380.45,985.63"/>
    </edge>
    <edge id=":3236324365_1" function="internal">
        <lane id=":3236324365_1_0" index="0" allow="pedestrian delivery bicycle" speed="3.65" length="4.67" shape="382.96,977.07 382.83,978.51 382.32,979.25 381.43,979.28 380.15,978.62"/>
    </edge>
    <edge id=":3236324365_2" function="internal">
        <lane id=":3236324365_2_0" index="0" allow="pedestrian delivery bicycle" speed="5.04" length="5.00" shape="378.92,982.82 380.02,982.00 380.59,981.03 380.64,979.90 380.15,978.62"/>
    </edge>
    <edge id=":3236324365_3" function="internal">
        <lane id=":3236324365_3_0" index="0" allow="pedestrian delivery bicycle" speed="3.65" length="4.67" shape="378.92,982.82 380.36,982.95 381.09,983.46 381.12,984.36 380.45,985.63"/>
    </edge>
    <edge id=":3236324368_0" function="internal">
        <lane id=":3236324368_0_0" index="0" allow="pedestrian delivery bicycle" speed="6.08" length="7.75" shape="327.04,996.33 326.73,994.95 327.30,993.53 328.74,992.08 331.06,990.58"/>
    </edge>
    <edge id=":3236324368_1" function="internal">
        <lane id=":3236324368_1_0" index="0" allow="pedestrian delivery bicycle" speed="3.65" length="4.67" shape="327.04,996.33 327.16,994.89 327.67,994.15 328.56,994.12 329.84,994.79"/>
    </edge>
    <edge id=":3236324368_2" function="internal">
        <lane id=":3236324368_2_0" index="0" disallow="tram rail_urban rail rail_electric rail_fast ship" speed="11.18" length="9.38" shape="322.82,995.04 331.06,990.58"/>
    </edge>
    <edge id=":3236324368_3" function="internal">
        <lane id=":3236324368_3_0" index="0" allow="pedestrian delivery bicycle" speed="6.11" length="7.74" shape="322.82,995.04 325.34,993.92 327.35,993.50 328.85,993.79 329.84,994.79"/>
    </edge>
    <edge id=":3236324370_0" function="internal">
        <lane id=":3236324370_0_0" index="0" allow="pedestrian delivery bicycle" speed="4.95" length="4.77" shape="341.91,1010.17 341.10,1009.06 340.17,1008.45 339.12,1008.36 337.96,1008.77"/>
    </edge>
    <edge id=":3236324370_1" function="internal">
        <lane id=":3236324370_1_0" index="0" allow="pedestrian delivery bicycle" speed="5.56" length="10.18" shape="341.91,1010.17 340.93,1007.56 341.02,1005.26 342.18,1003.28 344.42,1001.61"/>
    </edge>
    <edge id=":3236324370_2" function="internal">
        <lane id=":3236324370_2_0" index="0" allow="pedestrian delivery bicycle" speed="3.65" length="4.67" shape="341.91,1010.17 342.03,1008.73 342.54,1008.00 343.44,1007.96 344.71,1008.63"/>
    </edge>
    <edge id=":3236324370_3" function="internal">
        <lane id=":3236324370_3_0" index="0" allow="pedestrian delivery bicycle" speed="5.04" length="5.00" shape="345.95,1004.42 344.85,1005.24 344.28,1006.22 344.23,1007.35 344.71,1008.63"/>
    </edge>
    <edge id=":3236324370_4" function="internal">
        <lane id=":3236324370_4_0" index="0" allow="pedestrian delivery bicycle" speed="5.56" length="9.10" shape="345.95,1004.42 337.96,1008.77"/>
    </edge>
    <edge id=":3236324370_5" function="internal">
        <lane id=":3236324370_5_0" index="0" allow="pedestrian delivery bicycle" speed="3.65" length="4.67" shape="345.95,1004.42 344.51,1004.29 343.78,1003.78 343.75,1002.89 344.42,1001.61"/>
    </edge>
    <edge id=":3236324370_6" function="internal">
        <lane id=":3236324370_6_0" index="0" allow="pedestrian delivery bicycle" speed="5.56" length="8.49" shape="336.96,1005.67 344.42,1001.61"/>
    </edge>
    <edge id=":3236324370_7" function="internal">
        <lane id=":3236324370_7_0" index="0" allow="pedestrian delivery bicycle" speed="5.56" length="9.44" shape="336.96,1005.67 339.22,1004.89 341.26,1005.13 343.09,1006.37 344.71,1008.63"/>
    </edge>
    <edge id=":3236324370_8" function="internal">
        <lane id=":3236324370_8_0" index="0" allow="pedestrian delivery bicycle" speed="3.67" length="4.76" shape="336.96,1005.67 338.37,1006.07 339.01,1006.72 338.87,1007.62 337.96,1008.77"/>
    </edge>
    <edge id=":3236324375_0" function="internal">
        <lane id=":3236324375_0_0" index="0" allow="pedestrian delivery bicycle" speed="5.56" length="10.18" shape="354.54,1026.54 355.53,1029.15 355.44,1031.44 354.27,1033.43 352.04,1035.09"/>
    </edge>
    <edge id=":3236324375_1" function="internal">
        <lane id=":3236324375_1_0" index="0" allow="pedestrian delivery bicycle" speed="3.65" length="4.67" shape="354.54,1026.54 354.42,1027.97 353.91,1028.71 353.02,1028.74 351.74,1028.08"/>
    </edge>
    <edge id=":3236324375_2" function="internal">
        <lane id=":3236324375_2_0" index="0" allow="pedestrian delivery bicycle" speed="5.04" length="5.00" shape="350.50,1032.28 351.60,1031.46 352.18,1030.49 352.22,1029.36 351.74,1028.08"/>
    </edge>
    <edge id=":3236324375_3" function="internal">
        <lane id=":3236324375_3_0" index="0" allow="pedestrian delivery bicycle" speed="3.65" length="4.67" shape="350.50,1032.28 351.94,1032.41 352.68,1032.92 352.71,1033.82 352.04,1035.09"/>
    </edge>
    <edge id=":3236324376_0" function="internal">
        <lane id=":3236324376_0_0" index="0" allow="pedestrian delivery bicycle" speed="3.65" length="4.67" shape="317.89,1053.69 316.45,1053.56 315.72,1053.05 315.69,1052.16 316.36,1050.88"/>
    </edge>
    <edge id=":3254626250_0" function="internal">
        <lane id=":3254626250_0_0" index="0" disallow="tram rail_urban rail rail_electric rail_fast ship" speed="11.18" length="5.07" shape="835.59,1681.32 833.18,1676.87"/>
        <lane id=":3254626250_0_1" index="1" disallow="tram rail_urban rail rail_electric rail_fast ship" speed="11.18" length="5.07" shape="838.41,1679.80 835.99,1675.34"/>
    </edge>
    <edge id=":3564808501_0" function="internal">
        <lane id=":3564808501_0_0" index="0" allow="rail rail_electric rail_fast" speed="44.44" length="2.99" shape="1662.34,1690.95 1659.71,1692.38"/>
    </edge>
    <edge id=":3564892571_0" function="internal">
        <lane id=":3564892571_0_0" index="0" disallow="tram rail_urban rail rail_electric rail_fast ship" speed="11.18" length="4.00" shape="445.37,957.43 443.48,953.91"/>
        <lane id=":3564892571_0_1" index="1" disallow="tram rail_urban rail rail_electric rail_fast ship" speed="11.18" length="4.00" shape="448.19,955.91 446.30,952.39"/>
    </edge>
    <edge id=":3564892571_2" function="internal">
        <lane id=":3564892571_2_0" index="0" allow="bicycle" speed="9.75" length="6.38" shape="450.97,955.30 449.22,954.58 447.74,954.47 446.46,954.18 445.33,952.91"/>
    </edge>
    <edge id=":358447541_0" function="internal">
        <lane id=":358447541_0_0" index="0" disallow="tram rail_urban rail rail_electric rail_fast ship" speed="11.18" length="10.85" shape="713.01,1666.96 722.55,1661.80"/>
    </edge>
    <edge id=":358447541_1" function="internal">
        <lane id=":358447541_1_0" index="0" disallow="tram rail_urban rail rail_electric rail_fast ship" speed="6.54" length="8.85" shape="713.01,1666.96 715.26,1666.16 717.26,1666.25 719.01,1667.26 720.53,1669.16"/>
    </edge>
    <edge id=":3799564971_0" function="internal">
        <lane id=":3799564971_0_0" index="0" allow="pedestrian delivery bicycle" speed="5.03" length="5.01" shape="1373.16,1938.26 1372.34,1937.15 1371.37,1936.58 1370.24,1936.53 1368.96,1937.01"/>
    </edge>
    <edge id=":3799564971_1" function="internal">
        <lane id=":3799564971_1_0" index="0" allow="pedestrian delivery bicycle" speed="6.88" length="10.16" shape="1373.16,1938.26 1372.20,1935.64 1372.30,1933.34 1373.46,1931.36 1375.68,1929.70"/>
    </edge>
    <edge id=":3799564971_2" function="internal">
        <lane id=":3799564971_2_0" index="0" allow="pedestrian delivery bicycle" speed="3.65" length="4.67" shape="1373.16,1938.26 1373.30,1936.82 1373.81,1936.09 1374.70,1936.07 1375.98,1936.74"/>
    </edge>
    <edge id=":3799564971_3" function="internal">
        <lane id=":3799564971_3_0" index="0" allow="pedestrian delivery bicycle" speed="5.06" length="5.02" shape="1377.21,1932.51 1376.12,1933.33 1375.55,1934.31 1375.50,1935.45 1375.98,1936.74"/>
    </edge>
    <edge id=":3799564971_4" function="internal">
        <lane id=":3799564971_4_0" index="0" disallow="tram rail_urban rail rail_electric rail_fast ship" speed="11.18" length="9.40" shape="1377.21,1932.51 1368.96,1937.01"/>
    </edge>
    <edge id=":3799564971_5" function="internal">
        <lane id=":3799564971_5_0" index="0" disallow="tram rail_urban rail rail_electric rail_fast ship" speed="3.65" length="2.34" shape="1377.21,1932.51 1375.77,1932.38 1375.04,1931.87"/>
    </edge>
    <edge id=":3799564971_9" function="internal">
        <lane id=":3799564971_9_0" index="0" disallow="tram rail_urban rail rail_electric rail_fast ship" speed="3.65" length="2.34" shape="1375.04,1931.87 1375.01,1930.98 1375.68,1929.70"/>
    </edge>
    <edge id=":3799564971_6" function="internal">
        <lane id=":3799564971_6_0" index="0" disallow="tram rail_urban rail rail_electric rail_fast ship" speed="11.18" length="9.40" shape="1367.43,1934.20 1375.68,1929.70"/>
    </edge>
    <edge id=":3799564971_7" function="internal">
        <lane id=":3799564971_7_0" index="0" allow="pedestrian delivery bicycle" speed="6.86" length="5.09" shape="1367.43,1934.20 1370.04,1933.22 1372.34,1933.32"/>
    </edge>
    <edge id=":3799564971_8" function="internal">
        <lane id=":3799564971_8_0" index="0" disallow="tram rail_urban rail rail_electric rail_fast ship" speed="3.65" length="2.34" shape="1367.43,1934.20 1368.86,1934.33 1369.60,1934.84"/>
    </edge>
    <edge id=":3799564971_10" function="internal">
        <lane id=":3799564971_10_0" index="0" allow="pedestrian delivery bicycle" speed="6.86" length="5.09" shape="1372.34,1933.32 1374.32,1934.49 1375.98,1936.74"/>
    </edge>
    <edge id=":3799564971_11" function="internal">
        <lane id=":3799564971_11_0" index="0" disallow="tram rail_urban rail rail_electric rail_fast ship" speed="3.65" length="2.34" shape="1369.60,1934.84 1369.63,1935.73 1368.96,1937.01"/>
    </edge>
    <edge id=":3799572065_0" function="internal">
        <lane id=":3799572065_0_0" index="0" disallow="tram rail_urban rail rail_electric rail_fast ship" speed="6.71" length="9.58" shape="1458.24,1886.52 1455.89,1888.08 1454.49,1889.47 1453.10,1890.86 1450.75,1892.42"/>
    </edge>
    <edge id=":3799572065_1" function="internal">
        <lane id=":3799572065_1_0" index="0" allow="pedestrian delivery bicycle" speed="2.24" length="6.03" shape="1458.24,1886.52 1455.68,1887.58 1453.53,1887.75 1452.51,1887.32"/>
    </edge>
    <edge id=":3799572065_6" function="internal">
        <lane id=":3799572065_6_0" index="0" allow="pedestrian delivery bicycle" speed="2.24" length="2.88" shape="1452.51,1887.32 1451.79,1887.02 1450.45,1885.41"/>
    </edge>
    <edge id=":3799572065_2" function="internal">
        <lane id=":3799572065_2_0" index="0" allow="pedestrian delivery bicycle" speed="6.71" length="10.18" shape="1453.25,1883.87 1454.24,1886.48 1454.15,1888.77 1452.98,1890.76 1450.75,1892.42"/>
    </edge>
    <edge id=":3799572065_3" function="internal">
        <lane id=":3799572065_3_0" index="0" allow="pedestrian delivery bicycle" speed="2.24" length="4.67" shape="1453.25,1883.87 1453.13,1885.30 1452.62,1886.04 1451.73,1886.07 1450.45,1885.41"/>
    </edge>
    <edge id=":3799572065_4" function="internal">
        <lane id=":3799572065_4_0" index="0" allow="pedestrian delivery bicycle" speed="5.04" length="5.00" shape="1449.22,1889.61 1450.32,1888.79 1450.89,1887.82 1450.93,1886.69 1450.45,1885.41"/>
    </edge>
    <edge id=":3799572065_5" function="internal">
        <lane id=":3799572065_5_0" index="0" disallow="tram rail_urban rail rail_electric rail_fast ship" speed="3.65" length="2.18" shape="1449.22,1889.61 1450.65,1889.74 1451.26,1890.16"/>
    </edge>
    <edge id=":3799572065_7" function="internal">
        <lane id=":3799572065_7_0" index="0" disallow="tram rail_urban rail rail_electric rail_fast ship" speed="3.65" length="2.50" shape="1451.26,1890.16 1451.39,1890.25 1451.42,1891.15 1450.75,1892.42"/>
    </edge>
    <edge id=":3799572066_0" function="internal">
        <lane id=":3799572066_0_0" index="0" allow="pedestrian delivery bicycle" speed="5.03" length="5.01" shape="1382.69,1757.26 1381.89,1756.14 1380.92,1755.56 1379.79,1755.51 1378.50,1755.98"/>
    </edge>
    <edge id=":3799572066_1" function="internal">
        <lane id=":3799572066_1_0" index="0" allow="pedestrian delivery bicycle" speed="3.65" length="4.67" shape="1382.69,1757.26 1382.84,1755.82 1383.36,1755.09 1384.25,1755.07 1385.52,1755.76"/>
    </edge>
    <edge id=":3799572066_2" function="internal">
        <lane id=":3799572066_2_0" index="0" allow="pedestrian delivery bicycle" speed="5.60" length="6.38" shape="1386.03,1750.11 1384.97,1751.01 1384.54,1752.25 1384.72,1753.84 1385.52,1755.76"/>
    </edge>
    <edge id=":3799572066_3" function="internal">
        <lane id=":3799572066_3_0" index="0" disallow="tram rail_urban rail rail_electric rail_fast ship" speed="11.18" length="9.59" shape="1386.03,1750.11 1383.67,1751.66 1382.26,1753.05 1380.86,1754.43 1378.50,1755.98"/>
    </edge>
    <edge id=":3833309813_0" function="internal">
        <lane id=":3833309813_0_0" index="0" disallow="tram rail_urban rail rail_electric rail_fast ship" speed="11.18" length="4.74" shape="1757.63,1645.23 1759.92,1649.37"/>
    </edge>
    <edge id=":3857400399_0" function="internal">
        <lane id=":3857400399_0_0" index="0" disallow="tram rail_urban rail rail_electric rail_fast ship" speed="11.18" length="5.50" shape="1767.34,1019.51 1767.01,1018.14 1766.78,1017.19 1766.46,1016.29 1765.84,1015.03"/>
        <lane id=":3857400399_0_1" index="1" disallow="tram rail_urban rail rail_electric rail_fast ship" speed="11.18" length="5.50" shape="1770.44,1018.70 1770.05,1017.11 1769.77,1016.02 1769.39,1014.98 1768.66,1013.52"/>
        <lane id=":3857400399_0_2" index="2" disallow="tram rail_urban rail rail_electric rail_fast ship" speed="11.18" length="5.50" shape="1773.53,1017.90 1773.09,1016.09 1772.76,1014.85 1772.31,1013.66 1771.48,1012.01"/>
    </edge>
    <edge id=":387180916_0" function="internal">
        <lane id=":387180916_0_0" index="0" disallow="tram rail_urban rail rail_electric rail_fast ship" speed="11.18" length="11.42" shape="403.52,867.76 398.59,857.55"/>
        <lane id=":387180916_0_1" index="1" disallow="tram rail_urban rail rail_electric rail_fast ship" speed="11.18" length="11.42" shape="406.43,866.44 401.43,856.08"/>
    </edge>
    <edge id=":387180916_2" function="internal">