<configuration>
    <input>
        <net-file value="mht.net.xml"/>
        <route-files value="mht_odtrips.rou.xml"/>
    </input>
    
    <time>
        <begin value="0"/>
        <end value="2000"/>
    </time>
</configuration>