<additional>
    <tazs>
        <taz id="1" edges="396444293#0">
        </taz>
        <taz id="2" edges="396444294#1">
        </taz>
        <taz id="3" edges="5671401#6">
        </taz>
        <taz id="4" edges="-438390724">
        </taz>
        <taz id="5" edges="194923795#5">
        </taz>
    </tazs>
</additional>