<?xml version="1.0" encoding="UTF-8"?>

<!-- generated on Thu Jun  4 16:02:44 2020 by Eclipse SUMO duarouter Version 1.6.0
<configuration xmlns:xsi="http://www.w3.org/2001/XMLSchema-instance" xsi:noNamespaceSchemaLocation="http://sumo.dlr.de/xsd/duarouterConfiguration.xsd">

    <input>
        <net-file value="/home/jerry/Documents/Projects/sumo_tutorial/part_2/mht.net.xml"/>
        <route-files value="trips.trips.xml"/>
    </input>

    <output>
        <output-file value="/home/jerry/Documents/Projects/sumo_tutorial/part_2/mht.rou.xml"/>
        <alternatives-output value="/home/jerry/Documents/Projects/sumo_tutorial/part_2/mht.rou.alt.xml"/>
    </output>

    <time>
        <begin value="0"/>
        <end value="1000.0"/>
    </time>

    <report>
        <no-warnings value="true"/>
        <ignore-errors value="true"/>
        <no-step-log value="true"/>
    </report>

</configuration>
-->

<routes xmlns:xsi="http://www.w3.org/2001/XMLSchema-instance" xsi:noNamespaceSchemaLocation="http://sumo.dlr.de/xsd/routes_file.xsd">
    <vehicle id="0" depart="0.00">
        <route edges="630828584#1 489019752#0 489019752#1 489019752#2 489019752#3 489019752#4 68668519#0 68668519#1 460606347#0 460606347#1 460606347#2 439933932#1 496982024#0 496983397#1 496983396#0 5673561#1 5673561#4 464543615#2"/>
    </vehicle>
    <vehicle id="1" depart="1.00">
        <route edges="5670296#3 489019752#1 489019752#2 489019752#3 226041019 46334597 788278351#0 788278351#1 5671317 226040996#0 464683341#1"/>
    </vehicle>
    <vehicle id="2" depart="2.00">
        <route edges="420598415 465101198#0 5671620#1 526571477#1 526571477#2 5671393#1 5671393#2 667597422#0 196117042#0 196117042#1 5671401#1 5671401#3 5671401#4"/>
    </vehicle>
    <vehicle id="3" depart="3.00">
        <route edges="420519634#0 438390724 -420598373 -428569356 -587038012 -526571477#2 -526571477#1 -5671620#1 -465101198#1 -420598415 -420598407 420598407 5670836#0 22914179#5"/>
    </vehicle>
    <vehicle id="4" depart="4.00">
        <route edges="22914181#0 22914181#1 22914181#2 110489637 5670836#3 5670836#4 5670836#5 5670836#6 496993765#0 496993920"/>
    </vehicle>
    <vehicle id="5" depart="5.00">
        <route edges="597821266#10 597821266#11 597821266#12 597821266#13 597821266#14 127693383#0 127693383#1 127693383#2 5669669#8 5669669#9 350726028#3 350726028#5 350726028#6 350726028#7 350726028#8 350726028#9 350726028#10 384178813#0 384178813#1 156994977#0 156994977#1 156994977#2 194923812#0 194923812#1 194923812#2 194923812#3 674686230 127693388#0 127693388#1 350726031 5670451#0 5670451#1 5672681#2 5672681#3 5672681#4"/>
    </vehicle>
    <vehicle id="6" depart="6.00">
        <route edges="458166896#12 458166896#15 458166896#17 584971399 438390724 -420598373 -428569356 -587038012 -526571477#2 -526571477#1 -5671620#1 -465101198#1 -420598415 -420598407 420598407"/>
    </vehicle>
    <vehicle id="7" depart="7.00">
        <route edges="420598330#2 396444294#10 396444294#12 630828586#1 630828586#2 489019752#0 489019752#1 5670719#12 788278346 788278348#0 788278348#1 5671401#0 5671401#1 5671401#3 5671401#4 458166896#9 5672487#6"/>
    </vehicle>
    <vehicle id="9" depart="9.00">
        <route edges="350726028#6 350726028#7 597821266#9 597821266#10 597821266#11 597821266#12 597821266#13 597821266#14 630828584#0 630828584#1 489019752#0 489019752#1 489019752#2 489019752#3 226041019 46334597 788278351#0 788278351#1 5671317"/>
    </vehicle>
    <vehicle id="10" depart="10.00">
        <route edges="127693200#0 127693200#1 127693200#2 226041041 226041042 46490540#0 46490540#1 396444293#0 396444293#1 597821266#6 597821266#7 597821266#8 597821266#9 597821266#10 597821266#11 597821266#12 597821266#13 597821266#14 630828584#0 630828584#1 489019752#0 489019752#1 489019752#2 5669669#3 5669669#4"/>
    </vehicle>
    <vehicle id="12" depart="12.00">
        <route edges="465101198#0 -465101198#1 -420598415 -420598407 420598366#0 420598366#1 483704512#4 483704512#5 483704512#6 483704512#7 483704512#8 483704512#9 350726028#9 350726028#10 384178813#0 384178813#1"/>
    </vehicle>
    <vehicle id="13" depart="13.00">
        <route edges="5672450#1 5670836#4 194923795#4 196117090#3 196117090#4 196117090#5 196117090#6 196117090#7 630828586#0 630828586#1 630828586#2 489019752#0 489019752#1 489019752#2 489019752#3 489019752#4 68668519#0"/>
    </vehicle>
    <vehicle id="14" depart="14.00">
        <route edges="5670836#1 5670836#2 34080062#0 196117090#5 196117090#6 196117090#7 465101198#0 5671620#1 526571477#1 526571477#2 5671393#1 5670466 525768550"/>
    </vehicle>
    <vehicle id="15" depart="15.00">
        <route edges="5670719#7 5670719#10 5670719#11 489019752#2 5669669#3 5669669#4"/>
    </vehicle>
    <vehicle id="16" depart="16.00">
        <route edges="420598330#2 420598327 420598415 465101198#0 5671620#1 526571477#1 526571477#2 587038012 428569356 420598373 -438390724 -420519634#1 489019754#0 195745915#0"/>
    </vehicle>
    <vehicle id="17" depart="17.00">
        <route edges="5671401#0 5671401#1 464683339#1 464683339#2 464683319 464683336 525768550 464683329#0 464683329#1 464683329#2 464683329#3"/>
    </vehicle>
    <vehicle id="18" depart="18.00">
        <route edges="464515259#2 464515259#3 767683107#0 767683107#1 767683109#0 767683109#1 767683108 350726028#0 350726028#2 350726028#3 350726028#5 350726028#6 350726028#7 350726028#8 483704512#10 483704512#11 396444293#1 396444293#2 396444295#0 396444295#1"/>
    </vehicle>
    <vehicle id="19" depart="19.00">
        <route edges="-458106348#1 194923811 420598345 496986855 496993763 196117090#1 196117090#2 196117090#3 196117090#4 196117090#5 196117090#6 196117090#7 630828586#0 630828586#1 630828586#2 489019752#0 489019752#1 489019752#2 489019752#3 489019752#4 68668519#0 68668519#1 460606348#1 415849235#1 415849235#2 5671693#0 420499932#0 420499932#2 542096279#0 46469731#3"/>
    </vehicle>
    <vehicle id="20" depart="20.00">
        <route edges="464683336 525768550 464683329#0 464683329#1 5672211#2 5672211#3 803024464#1 541330444 196117090#6"/>
    </vehicle>
    <vehicle id="21" depart="21.00">
        <route edges="5671442#0 5671442#1 690414969 492489893#0 492489893#1 492489893#2 492489884 195743190 68668556 420512231#0 420512231#1 420512231#2 420598330#0 420598330#1 483704512#3 483704512#4 483704512#5 483704512#6 483704512#7 483704512#8 483704512#9 350726028#9 350726028#10"/>
    </vehicle>
    <vehicle id="22" depart="22.00">
        <route edges="46581216#2 788278350#0 788278350#1 788278345#0 788278348#0 788278348#1 5671401#0 5671401#1 196117051#2 420514149#0 420514149#1 447001270 5673380#0"/>
    </vehicle>
    <vehicle id="23" depart="23.00">
        <route edges="483704512#2 483704512#3 483704512#4 483704512#5 483704512#6 483704512#7 483704512#8 483704512#9 350726028#9 350726028#10 384178813#0 384178813#1 156994977#0 156994977#1 156994977#2 194923812#0 194923812#1 194923812#2 194923812#3 674686230 127693388#0 127693388#1 350726031 -458106348#1 -196117074"/>
    </vehicle>
    <vehicle id="24" depart="24.00">
        <route edges="428569470#0 458166896#15 409716177 464683322 667597422#0 196117042#0 5672487#10 587061854 68668552#1 788602259 22898643 543717203#0 543717203#1 788602263#0 788602263#1 788602263#2"/>
    </vehicle>
    <vehicle id="25" depart="25.00">
        <route edges="481403099#1 420598356 194923795#3 194923795#4 196117090#3 196117090#4 196117090#5 196117090#6 196117090#7 630828586#0 630828586#1 630828586#2 489019752#0 489019752#1 489019752#2 489019752#3 489019752#4 68668519#0 68668519#1 460606348#1 415849235#1 415849235#2"/>
    </vehicle>
    <vehicle id="27" depart="27.00">
        <route edges="5670719#10 420512231#2 420598330#0 420598330#1 483704512#3 483704512#4 483704512#5 483704512#6 483704512#7 483704512#8 483704512#9 483704512#10 483704512#11 396444293#1 597821266#6 5670297#0"/>
    </vehicle>
    <vehicle id="28" depart="28.00">
        <route edges="384178812#2 670519221 420598407 5670836#0 22914179#5 196117090#7 630828586#0 630828586#1 630828586#2 489019752#0 489019752#1 489019752#2 489019752#3 489019752#4 68668519#0 68668519#1 460606347#0 460606347#1 460606347#2 439933932#1 496982024#0 496983397#1 496983396#0 5673561#1 5673561#4 464543615#2"/>
    </vehicle>
    <vehicle id="29" depart="29.00">
        <route edges="496993920 420598345 496986855 496993763 196117090#1 196117090#2 196117090#3 196117090#4 196117090#5 196117090#6 196117090#7 630828586#0 630828586#1 630828586#2 489019752#0 489019752#1 489019752#2 489019752#3 489019752#4 68668519#0 68668519#1 460606347#0 460606347#1 460606347#2 439933932#1 496982024#0 496983397#1 496983396#0 5673561#1 5673561#4 464543615#2 496982023#0"/>
    </vehicle>
    <vehicle id="30" depart="30.00">
        <route edges="541330444 196117090#6 196117090#7 630828586#0 630828586#1 483704512#2 483704512#3"/>
    </vehicle>
    <vehicle id="32" depart="32.00">
        <route edges="194923795#1 465098271 420598335 458106345#1 458106345#2 458106345#3 458106345#4 458106345#5 458106345#6 458106345#8 127693200#1 127693200#2 226041041 226041042 46490540#0 46490540#1 396444293#0 396444293#1 597821266#6 5670297#0"/>
    </vehicle>
    <vehicle id="33" depart="33.00">
        <route edges="458166892#0 496983399#0 496983399#1 496983398#0 5673561#1 5673561#4 464543615#2 5670803 492489884 195743190 68668556 420512231#0"/>
    </vehicle>
    <vehicle id="34" depart="34.00">
        <route edges="542257009#1 542257009#2 438385431#3 420496529 458166892#0 458166892#1 195743343#0 195743343#1 588168464 464515614#0 5671317 226040996#0 226040998#0 226040998#1 388240124#15 46334598#0"/>
    </vehicle>
    <vehicle id="35" depart="35.00">
        <route edges="5669669#5 127693383#3 767683113#0 767683113#1 226041020 226041019 788278350#0 788278350#1 788278350#2 788278347#0 788278347#1 788278352 788278353#0 5669875#0 5669875#1"/>
    </vehicle>
    <vehicle id="36" depart="36.00">
        <route edges="348477348#3 465098276 420598337 458106346#1 458106346#2 458106346#3 458106346#4 458106346#5 458106346#6 458106346#7 458106346#8 194923800#2 127693200#0 127693200#1 127693200#2 226041041 226041042 46490540#0 -116672333#1 -116672333#0"/>
    </vehicle>
    <vehicle id="37" depart="37.00">
        <route edges="34080062#0 196117090#5 196117090#6 196117090#7 630828586#0 630828586#1 630828586#2 489019752#0 489019752#1 5670719#12 788278346 788278348#0 788278348#1 5671401#0 5671401#1 5671401#3 5671401#4 5671401#6 388240124#9 226040993#0"/>
    </vehicle>
    <vehicle id="38" depart="38.00">
        <route edges="116672333#2 384178813#0 384178813#1 156994977#0 156994977#1 156994977#2 194923795#0 194923795#1 194923795#3 194923795#4 194923795#5"/>
    </vehicle>
    <vehicle id="39" depart="39.00">
        <route edges="496993765#1 196117074 194923811 420598345 465098276 420598337 420598356 465098271 420598335 420598349 465098285 420598333 156994969 465098290 420598339 420598366#0 420598366#1 630828583 127693383#0 127693383#1 127693383#2 127693383#3 767683113#0 767683113#1 226041020 226041019"/>
    </vehicle>
    <vehicle id="40" depart="40.00">
        <route edges="22914179#0 22914179#1 22914179#2 22914179#4 22914179#5 196117090#7 -420598415"/>
    </vehicle>
    <vehicle id="41" depart="41.00">
        <route edges="5673561#4 464543615#2 496982023#0 496982023#1 -496982022#0 195743343#0 195743343#1 5671693#0 420499932#0"/>
    </vehicle>
    <vehicle id="42" depart="42.00">
        <route edges="483704512#12 46481095#9 22904113 22904062#0 22904062#2 396444293#0 396444293#1 597821266#6 597821266#7 597821266#8 597821266#9 597821266#10 597821266#11 597821266#12 597821266#13 597821266#14 127693383#0 127693383#1 127693383#2 5669669#8 5669669#9 711147865 506680905"/>
    </vehicle>
    <vehicle id="43" depart="43.00">
        <route edges="420598407 -420598407 -670519221 -384178812#2 -384178812#1 -384178812#0 -116672333#2 116672333#2"/>
    </vehicle>
    <vehicle id="45" depart="45.00">
        <route edges="464515259#1 68668556 420512231#0 420512231#1 420512231#2 420598330#0 420598330#1 483704512#3 483704512#4 483704512#5 483704512#6"/>
    </vehicle>
    <vehicle id="46" depart="46.00">
        <route edges="221157083#0 388240124#0 388240124#3 5672487#2 5672487#4 5672487#6 5672487#9 5672487#10 587061854 68668552#1 5672965#0 5672965#1 5672273#0 5672273#1 483704512#0 483704512#2 483704512#3"/>
    </vehicle>
    <vehicle id="47" depart="47.00">
        <route edges="226040993#3 420514148#1 226040992 5669669#0 5669669#1 5669669#2 5669669#3 5669669#4 420512231#1 5670719#11"/>
    </vehicle>
    <vehicle id="48" depart="48.00">
        <route edges="458106345#1 458106345#2 156994977#2 194923812#0 194923812#1 194923812#2 194923812#3 674686230 348477348#3"/>
    </vehicle>
    <vehicle id="49" depart="49.00">
        <route edges="5673561#4 464543615#2 496982023#0 496982023#1 -496982022#0 195743343#0 195743343#1 588168464 46490538#0"/>
    </vehicle>
    <vehicle id="50" depart="50.00">
        <route edges="34080062#1 68668541#2 5672450#0 196117090#4 196117090#5 196117090#6 196117090#7 630828586#0 396444294#13"/>
    </vehicle>
    <vehicle id="51" depart="51.00">
        <route edges="483704512#3 630828583 630828584#0 630828584#1 489019752#0 489019752#1 489019752#2 489019752#3 489019752#4 68668519#0 68668519#1 460606347#0 460606347#1 460606347#2 439933932#1 496982024#0 -496982022#0"/>
    </vehicle>
    <vehicle id="52" depart="52.00">
        <route edges="34080062#1 68668541#2 5672450#0 5672450#1 5672450#2 458106345#1 458106345#2 156994977#2 194923812#0 194923812#1 194923812#2 194923812#3 674686230 127693388#0 127693388#1 350726031"/>
    </vehicle>
    <vehicle id="53" depart="53.00">
        <route edges="458166896#0 458166896#2 458166896#3 458166896#4 226040993#3 420514148#1 226040992 5669669#0 5669669#1 5669669#2 5669669#3 5669669#4 5669669#5 5669669#8 5669669#9 350726028#3 350726028#5 350726028#6 350726028#7 350726028#8 350726028#9 350726028#10 -116672333#2 46490540#1 396444293#0"/>
    </vehicle>
    <vehicle id="54" depart="54.00">
        <route edges="420598415 465101198#0 -465101198#1 -420598415 -420598407 420598366#0 420598366#1 630828583 127693383#0 127693383#1 5670719#10"/>
    </vehicle>
    <vehicle id="55" depart="55.00">
        <route edges="496983399#1 496983398#0 5673561#1 5673561#4 464543615#2 5670803 492489884 195743190 68668556 420512231#0 420512231#1 420512231#2 420598330#0 420598330#1 420598330#2 420598327 420598415 465101198#0"/>
    </vehicle>
    <vehicle id="56" depart="56.00">
        <route edges="110489637 5670836#3 5670836#4 5670836#5 481403099#1 458106346#1 458106346#2 194923812#1 194923812#2 194923812#3 674686230 348477348#3"/>
    </vehicle>
    <vehicle id="57" depart="57.00">
        <route edges="46469731#3 496983399#0 496983399#1 496983398#0 5673561#1 5673561#4 464543615#2 5670803 492489884 195743190 68668556 420512231#0 420512231#1 420512231#2 420598330#0 420598330#1 420598330#2 420598327 5670836#0 5670836#1 5670836#2 5670836#3 5670836#4 5670836#5 5670836#6 496993765#0 496993920"/>
    </vehicle>
    <vehicle id="58" depart="58.00">
        <route edges="226041020 489019752#4 464515259#0 464515259#1 464515259#2 464515259#3 767683107#0 767683107#1 767683109#0 767683109#1 767683108 350726028#0 350726028#2 350726028#3 350726028#5 350726028#6 350726028#7 350726028#8 350726028#9 350726028#10 -116672333#2 -116672333#1 -116672333#0"/>
    </vehicle>
    <vehicle id="59" depart="59.00">
        <route edges="464683318 196117051#0 196117051#1 196117051#2 420514149#0 226040998#0 458166896#4"/>
    </vehicle>
    <vehicle id="60" depart="60.00">
        <route edges="483704512#5 483704512#6 483704512#7 483704512#8 483704512#9 350726028#9 350726028#10 384178813#0 384178813#1 156994977#0 156994977#1 156994977#2 194923812#0 194923812#1 194923812#2 194923812#3 674686230 127693388#0 505766273 46610722 196117075#0"/>
    </vehicle>
    <vehicle id="62" depart="62.00">
        <route edges="-420598415 -420598407 420598366#0 420598366#1 630828583 630828584#0 630828584#1 489019752#0 489019752#1 489019752#2 489019752#3 489019752#4 68668519#0 68668519#1 460606347#0 460606347#1 460606347#2 439933932#1 496982024#0 496983397#1 496983396#0 587038081#1 384649120#1 542257009#1"/>
    </vehicle>
    <vehicle id="63" depart="63.00">
        <route edges="5671401#6 388240124#9 226040993#0 226040993#3 464683339#0 464683339#1 464683339#2 428569470#0"/>
    </vehicle>
    <vehicle id="64" depart="64.00">
        <route edges="420514149#1 447001270 385668565#0 385668565#1"/>
    </vehicle>
    <vehicle id="65" depart="65.00">
        <route edges="195743208#0 5670803 492489884 195743190 68668556 420512231#0 420512231#1 420512231#2 420598330#0 420598330#1 420598330#2 396444294#10 396444294#12 630828586#1 483704512#2"/>
    </vehicle>
    <vehicle id="66" depart="66.00">
        <route edges="-384178812#2 384178812#2 670519221 420598407 5670836#0 22914179#5 196117090#7 630828586#0 630828586#1 630828586#2 489019752#0 489019752#1 489019752#2 489019752#3 489019752#4 68668519#0 68668519#1 460606347#0 460606347#1 460606347#2 439933932#1 496982024#0 496983397#1 496983396#0 587038081#1 384649120#1"/>
    </vehicle>
    <vehicle id="67" depart="67.00">
        <route edges="156994961#0 5670836#2 34080062#0 196117090#5 196117090#6 196117090#7 630828586#0 630828586#1 630828586#2 489019752#0 489019752#1 489019752#2 489019752#3 489019752#4 68668519#0 68668519#1 460606347#0 460606347#1 460606347#2 439933932#1 496982024#0 496983397#1 496983396#0 5673561#1 5673561#4 464543615#2 5670803 492489884 484170269#0"/>
    </vehicle>
    <vehicle id="68" depart="68.00">
        <route edges="22914179#2 22914179#4 22914179#5 22914179#6 68668541#0 68668541#1 68668541#2 5672450#0"/>
    </vehicle>
    <vehicle id="69" depart="69.00">
        <route edges="194923795#4 196117090#3 196117090#4 196117090#5 196117090#6 22914179#6 68668541#0 68668541#1"/>
    </vehicle>
    <vehicle id="70" depart="70.00">
        <route edges="46481747#3 46522006#0 46522006#1 458166892#0 496983399#0 496983399#1 496983398#0 5673561#1 5673561#4 464543615#2 5670803 492489884 195743190 68668556 420512231#0 420512231#1 420512231#2 420598330#0 420598330#1 420598330#2 420598327 5670836#0 5670836#1 5670836#2 5670836#3 5672450#2 420598349 110489637"/>
    </vehicle>
    <vehicle id="71" depart="71.00">
        <route edges="5670836#1 5670836#2 34080062#0 196117090#5 196117090#6 196117090#7 630828586#0 630828586#1 630828586#2 489019752#0 5670296#4 420512232"/>
    </vehicle>
    <vehicle id="72" depart="72.00">
        <route edges="483704512#12 46481095#9 22904113 22904062#0 22904062#2 396444293#0 396444293#1 597821266#6 597821266#7 597821266#8 597821266#9 597821266#10 597821266#11 597821266#12 597821266#13 597821266#14 630828584#0 630828584#1 489019752#0 489019752#1 489019752#2 489019752#3 489019752#4 68668519#0 68668519#1 460606347#0 460606347#1 460606347#2 439933932#1 496982024#0 496983397#1 496983396#0 587038081#1 46522006#0 46522006#1 5673231"/>
    </vehicle>
    <vehicle id="73" depart="73.00">
        <route edges="22914181#0 156994977#1 156994977#2 194923812#0 194923812#1 194923812#2 194923812#3 674686230 348477348#3 496986855 496993763 196117090#1 481403099#0"/>
    </vehicle>
    <vehicle id="74" depart="74.00">
        <route edges="5671401#6 388240124#9 226040993#0 226040993#3 464683339#0 464683339#1 464683339#2 464683319 464683336 525768549#1"/>
    </vehicle>
    <vehicle id="75" depart="75.00">
        <route edges="5669669#5 5669669#8 5669669#9 350726028#3 350726028#5 350726028#6 350726028#7 350726028#8 483704512#10 483704512#11 396444293#1 396444293#2 396444295#0 396444295#1"/>
    </vehicle>
    <vehicle id="76" depart="76.00">
        <route edges="464515614#3 587061854 68668552#1 5672965#0 5672965#1 5672273#0 5672273#1 483704512#0 483704512#2 420598330#2 420598327 5670836#0 5670836#1 5670836#2 5670836#3 5670836#4 5670836#5 5670836#6 496993763"/>
    </vehicle>
    <vehicle id="77" depart="77.00">
        <route edges="5671393#2 667597422#0 196117042#0 5672487#10 5670296#0 5670296#1 5670296#2 5670296#3 5670296#4 420598330#0 420598330#1 420598330#2 420598327 5670836#0 5670836#1 156994961#1 458106344#1 458106344#2 156994955 226041042 22914179#0"/>
    </vehicle>
    <vehicle id="78" depart="78.00">
        <route edges="196117090#2 196117090#3 196117090#4 196117090#5 196117090#6 22914179#6 68668541#0 541330444"/>
    </vehicle>
    <vehicle id="79" depart="79.00">
        <route edges="465101198#0 5671620#1 526571477#1 526571477#2 5671393#1 5670466 525768549#1"/>
    </vehicle>
    <vehicle id="80" depart="80.00">
        <route edges="496986855 496993763 196117090#1 196117090#2 196117090#3 196117090#4 196117090#5 196117090#6 196117090#7 630828586#0 630828586#1 630828586#2 630828585#0 630828585#1 630828585#2 46334600 788278353#0 5669875#0 5669875#1 5669875#2 196117042#0"/>
    </vehicle>
    <vehicle id="81" depart="81.00">
        <route edges="496993920 420598345 465098276 420598337 420598356 465098271 420598335 420598349 465098285 420598333 156994969 465098290 420598339 420598366#0 420598366#1 630828583 127693383#0 127693383#1 5670719#10 5670719#11 5670719#12 788278346 788278348#0 788278348#1 464515614#3"/>
    </vehicle>
    <vehicle id="82" depart="82.00">
        <route edges="483704512#11 396444293#1 597821266#6 597821266#7 597821266#8 350726028#8 350726028#9 350726028#10 384178813#0 22914179#1 22914179#2 22914179#4 22914179#5"/>
    </vehicle>
    <vehicle id="83" depart="83.00">
        <route edges="5672487#0 388240124#6 388240124#9 226040993#0 226040993#3 420514148#1 226040992 5669669#0 5669669#1 5669669#2 5669669#3 5669669#4 5669669#5 5669669#8 5669669#9 350726028#3 5670719#6 5670719#7"/>
    </vehicle>
    <vehicle id="84" depart="84.00">
        <route edges="46481747#0 464543615#1 464543615#2 496982023#0 496982023#1 -496982022#0"/>
    </vehicle>
    <vehicle id="86" depart="86.00">
        <route edges="36806659#1 767683113#0 767683113#1 226041020 489019752#4 68668519#0 68668519#1 460606347#0 460606347#1 460606347#2 439933932#1 496982024#0 496983397#1 496983396#0 5673561#1 5673561#4 464543615#2"/>
    </vehicle>
    <vehicle id="87" depart="87.00">
        <route edges="195743343#0 195743343#1 5671693#0 195743165#0 464683344 464683341#0 464683341#1 464683339#0 464683339#1 464683339#2 464683319 464683336 525768550 -420598373 -428569356"/>
    </vehicle>
    <vehicle id="88" depart="88.00">
        <route edges="458106345#5 458106345#6 458106345#8 127693200#1 127693200#2 226041041 226041042 22914179#0 22914179#1 22914179#2 22914179#4 22914179#5 22914179#6 5670876#0 5670876#1 456308943#1 456308945 -438390724 5671472"/>
    </vehicle>
    <vehicle id="89" depart="89.00">
        <route edges="22914181#0 22914181#1 22914181#2 465098285 420598333 156994969 22914179#4 22914179#5 22914179#6 5670876#0 5670876#1 456308943#1 456308945 420519635#0 420519635#1 464683318 196117051#0 5672487#9"/>
    </vehicle>
    <vehicle id="90" depart="90.00">
        <route edges="630828584#0 630828584#1 489019752#0 489019752#1 489019752#2 489019752#3 489019752#4 68668519#0 68668519#1 460606347#0 460606347#1 460606347#2 439933932#1 496982024#0 -496982022#0 195743343#0 5671442#0"/>
    </vehicle>
    <vehicle id="91" depart="91.00">
        <route edges="226040992 5669669#0 5669669#1"/>
    </vehicle>
    <vehicle id="92" depart="92.00">
        <route edges="5670836#2 5670836#3 5672450#2 420598349 465098285 420598333 156994969 465098290 420598339 420598366#0 420598366#1 630828583 127693383#0 127693383#1 127693383#2 127693383#3 767683113#0"/>
    </vehicle>
    <vehicle id="93" depart="93.00">
        <route edges="597821266#13 597821266#14 630828584#0 630828584#1 630828585#0 630828585#1 630828585#2 46334600 788278353#0 5669875#0 5669875#1 5669875#2 464683321 428569470#0 428569470#2 428569470#4 388240124#3 388240124#6 388240124#9"/>
    </vehicle>
    <vehicle id="94" depart="94.00">
        <route edges="5671393#1 5671393#2 667597422#0 464683321 196117051#0 196117051#1 196117051#2"/>
    </vehicle>
    <vehicle id="95" depart="95.00">
        <route edges="5669669#3 5669669#4 420512231#1 420512231#2 420598330#0 420598330#1 420598330#2 420598327 -420598407 420598366#0 396444294#9"/>
    </vehicle>
    <vehicle id="96" depart="96.00">
        <route edges="465098276 420598337 420598356 465098271 420598335 420598349 465098285 420598333 156994969 465098290 420598339 420598407 420598415 465101198#0 5671620#1 526571477#1 -526571477#1"/>
    </vehicle>
    <vehicle id="97" depart="97.00">
        <route edges="458106347#1 350726031 -458106348#1 194923811 420598345 465098276 420598337 420598356 465098271 420598335 420598349 465098285 420598333 156994969 465098290 420598339 420598366#0 420598366#1 630828583 127693383#0 127693383#1 5670719#10 5670719#11 5670719#12 788278346 788278348#0 788278348#1 5671401#0 5671401#1 5671401#3 5671401#4 458166896#9 458166896#12"/>
    </vehicle>
    <vehicle id="98" depart="98.00">
        <route edges="46469731#3 496983399#0 496983399#1 496983398#0 5673561#1 5673561#4 464543615#2 5670803 492489884 195743190 68668556 420512231#0 420512231#1 420512231#2 420598330#0 420598330#1 420598330#2 420598327 5670836#0 5670836#1 5670836#2 5670836#3 5670836#4 5670836#5 5670836#6 496993763"/>
    </vehicle>
    <vehicle id="99" depart="99.00">
        <route edges="489019752#4 464515259#0 464515259#1 68668556 420512231#0 420512231#1 5670719#11"/>
    </vehicle>
    <vehicle id="100" depart="100.00">
        <route edges="630828584#1 489019752#0 489019752#1 489019752#2 489019752#3 489019752#4 464515259#0 464515259#1 464515259#2 464515259#3 767683114#0 767683114#1 -5671440#1 5671440#1"/>
    </vehicle>
    <vehicle id="101" depart="101.00">
        <route edges="226041020 226041019 46334597 788278351#0 788278351#1 5671317 447001272#1 447001272#2 420499932#0 420499932#2 542096279#0 542096279#1"/>
    </vehicle>
    <vehicle id="102" depart="102.00">
        <route edges="420499932#0 46520833#2 46520833#3 195743343#1 588168464 464515614#0 464515614#1 464515614#2 464515614#3 587061854 68668552#1 5672965#0 5672965#1 5672273#0 5672273#1 483704512#0 483704512#2 483704512#3 483704512#4 483704512#5 483704512#6 483704512#7 483704512#8 483704512#9 350726028#9 350726028#10 384178813#0 384178813#1 156994955 226041042 22914179#0"/>
    </vehicle>
    <vehicle id="104" depart="104.00">
        <route edges="420598337 420598356 465098271 420598335 420598349 465098285 420598333 156994969 465098290 420598339 420598366#0 420598366#1 630828583 630828584#0 630828584#1 630828585#0 630828585#1 630828585#2 46334600 788278353#0 5669875#0 5669875#1 5669875#2 464683321 428569470#0 428569470#2 428569470#4 388240124#3 388240124#6 5671401#9"/>
    </vehicle>
    <vehicle id="105" depart="105.00">
        <route edges="194923795#4 196117090#3 5672450#1 5672450#2 458106345#1 458106345#2 156994977#2 194923812#0 194923812#1 194923812#2 194923812#3 674686230 127693388#0 505766273 46334602#1"/>
    </vehicle>
    <vehicle id="106" depart="106.00">
        <route edges="396444294#13 396444294#14 788602261#0 788602261#1 5671620#1 526571477#1 526571477#2 5671393#1 5671393#2 667597422#0 464683321 428569470#0 428569470#2 428569470#4 388240124#3"/>
    </vehicle>
    <vehicle id="107" depart="107.00">
        <route edges="-384178812#1 -384178812#0 -116672333#2 46490540#1 396444293#0 396444293#1 597821266#6 597821266#7 597821266#8 597821266#9 597821266#10 597821266#11 597821266#12 597821266#13 597821266#14 127693383#0 127693383#1 127693383#2 127693383#3 767683113#0 767683113#1 420512231#0 5669669#5"/>
    </vehicle>
    <vehicle id="110" depart="110.00">
        <route edges="196117074 194923811 420598345 465098276 420598337 420598356 465098271 420598335 420598349 465098285 420598333 156994969 465098290 420598339 420598366#0 420598366#1 630828583 127693383#0 127693383#1 127693383#2 127693383#3 767683112 767683107#0 767683107#1 767683109#0 767683109#1 767683108"/>
    </vehicle>
    <vehicle id="111" depart="111.00">
        <route edges="5670719#11 489019752#2 5669669#3 5669669#4 5669669#5 5669669#8 5669669#9 350726028#3 350726028#5 350726028#6 350726028#7 350726028#8 483704512#10 483704512#11 483704512#12 46481095#9 22904113 22904062#0 22904062#2"/>
    </vehicle>
    <vehicle id="112" depart="112.00">
        <route edges="420496529 458166892#0 458166892#1 195743343#0 195743343#1 588168464 46490538#0 46490538#1 46490538#2 46490538#3 46490538#5 464515259#0 464515259#1"/>
    </vehicle>
    <vehicle id="114" depart="114.00">
        <route edges="396444294#9 420598327 5670836#0 5670836#1 5670836#2 5670836#3 5670836#4 5670836#5 481403099#1 458106346#1 458106346#2 458106346#3 458106346#4 458106346#5 458106346#6 458106346#7 458106346#8 194923800#2 127693199#0"/>
    </vehicle>
    <vehicle id="115" depart="115.00">
        <route edges="483704512#6 483704512#7 483704512#8 483704512#9 350726028#9 350726028#10 384178813#0 384178813#1 156994977#0 22914181#1 22914181#2 465098285"/>
    </vehicle>
    <vehicle id="116" depart="116.00">
        <route edges="420598356 465098271 420598335 458106345#1 458106345#2 458106345#3 458106345#4 458106345#5 458106345#6 458106345#8 127693200#1 127693200#2 226041041 226041042 46490540#0 116672333#2"/>
    </vehicle>
    <vehicle id="117" depart="117.00">
        <route edges="483704512#12 46481095#9 22904113 22904062#0 22904062#2 396444294#0 350726028#10 -116672333#2"/>
    </vehicle>
    <vehicle id="118" depart="118.00">
        <route edges="127693199#0 127693199#1 127693199#2 127693199#3 127693199#5 194923795#0 194923795#1 465098271 420598335 420598349 465098285 420598333 156994969 465098290 420598339 420598407 420598415 465101198#0 -465101198#1"/>
    </vehicle>
    <vehicle id="119" depart="119.00">
        <route edges="-384178812#2 384178812#2 670519221 420598407 -420598407 420598366#0 396444294#9 396444294#10"/>
    </vehicle>
    <vehicle id="120" depart="120.00">